LTspice 24.1.9 for Windows
Circuit: C:\Users\cohen\Desktop\ECG\ECG_AUDIO_OUT.net
Start Time: Fri Jul 17 21:25:02 2026
C:\Users\cohen\Desktop\ECG\ECG_AUDIO_OUT.net(5): Undefined model "r".
R1 N030 N031 R
             ^
C:\Users\cohen\Desktop\ECG\ECG_AUDIO_OUT.net(8): Undefined model "r".
R4 N011 N014 R
             ^
C:\Users\cohen\Desktop\ECG\ECG_AUDIO_OUT.net(11): Undefined model "r".
R5 N038 N035 R
             ^
C:\Users\cohen\Desktop\ECG\ECG_AUDIO_OUT.net(12): Undefined model "c".
C§68p N039 N038 C
                ^
C:\Users\cohen\Desktop\ECG\ECG_AUDIO_OUT.net(15): Undefined model "r".
R8 N012 N011 R
             ^
C:\Users\cohen\Desktop\ECG\ECG_AUDIO_OUT.net(16): Undefined model "r".
R9 N019 N031 R
             ^
C:\Users\cohen\Desktop\ECG\ECG_AUDIO_OUT.net(17): Undefined model "r".
R10 N025 N019 R
              ^
C:\Users\cohen\Desktop\ECG\ECG_AUDIO_OUT.net(18): Undefined model "r".
R11 N013 N012 R
              ^
C:\Users\cohen\Desktop\ECG\ECG_AUDIO_OUT.net(20): Undefined model "r".
R12 N032 N018 R
              ^
C:\Users\cohen\Desktop\ECG\ECG_AUDIO_OUT.net(21): Undefined model "r".
R13 N010 N009 R
              ^
C:\Users\cohen\Desktop\ECG\LA.txt(1): Expected ")" here.
(0 0  0.08 0.15m  0.12 0  0.16 -0.05m  0.17 1m
    ^^^^^^^^^^^^^^^^^^^^^^^^^^^^^^^^^^^^^^^^^^
C:\Users\cohen\Desktop\ECG\RA.txt(1): Expected ")" here.
(0 0  0.08 -0.15m  0.12 0  0.16 0.05m  0.17 -1m
    ^^^^^^^^^^^^^^^^^^^^^^^^^^^^^^^^^^^^^^^^^^^
C:\Users\cohen\Desktop\ECG\ECG_AUDIO_OUT.net(25): Undefined model "c".
C5 N026 N025 C
             ^
C:\Users\cohen\Desktop\ECG\ECG_AUDIO_OUT.net(26): Undefined model "r".
R14 N026 N025 R
              ^
C:\Users\cohen\Desktop\ECG\ECG_AUDIO_OUT.net(28): Undefined model "r".
R15 N013 N026 R
              ^
C:\Users\cohen\Desktop\ECG\ECG_AUDIO_OUT.net(29): Undefined model "r".
R16 N015 N013 R
              ^
C:\Users\cohen\Desktop\ECG\ECG_AUDIO_OUT.net(30): Undefined model "c".
C6 N015 N027 C
             ^
C:\Users\cohen\Desktop\ECG\ECG_AUDIO_OUT.net(32): Undefined model "r".
R17 N016 N021 R
              ^
C:\Users\cohen\Desktop\ECG\ECG_AUDIO_OUT.net(33): Undefined model "c".
C7 N017 N016 C
             ^
C:\Users\cohen\Desktop\ECG\ECG_AUDIO_OUT.net(34): Undefined model "r".
R18 N017 N028 R
              ^
C:\Users\cohen\Desktop\ECG\ECG_AUDIO_OUT.net(36): Undefined model "r".
R19 NC_17 N022 R
               ^
C:\Users\cohen\Desktop\ECG\ECG_AUDIO_OUT.net(37): Undefined model "c".
C8 N020 N022 C
             ^
C:\Users\cohen\Desktop\ECG\ECG_AUDIO_OUT.net(38): Undefined model "r".
R20 N022 N034 R
              ^
C:\Users\cohen\Desktop\ECG\ECG_AUDIO_OUT.net(46): Undefined model "c".
C2 N010 N032 C
             ^
C:\Users\cohen\Desktop\ECG\ECG_AUDIO_OUT.net(47): Undefined model "c".
C3 N032 N036 C
             ^
C:\Users\cohen\Desktop\ECG\ECG_AUDIO_OUT.net(48): Undefined model "c".
C4 N006 N010 C
             ^
