LTspice 24.1.9 for Windows
Circuit: C:\Users\cohen\Desktop\ECG\ECG_AUDIO_OUT.net
Start Time: Fri Jul 17 23:31:09 2026
C:\Users\cohen\Desktop\ECG\LA.txt(1): Expected ")" here.
(0 0  0.08 0.15m  0.12 0  0.16 -0.05m  0.17 1m
    ^^^^^^^^^^^^^^^^^^^^^^^^^^^^^^^^^^^^^^^^^^
C:\Users\cohen\Desktop\ECG\RA.txt(1): Expected ")" here.
(0 0  0.08 -0.15m  0.12 0  0.16 0.05m  0.17 -1m
    ^^^^^^^^^^^^^^^^^^^^^^^^^^^^^^^^^^^^^^^^^^^
